38

C      49.743302000000000     49.977930999999998     49.779280999999997
C      50.012214999999998     50.748418999999998     50.465049000000000
C      48.978994999999998     50.768346999999999     50.045774999999999
C      49.352718000000003     50.046120000000002     50.850358999999997
C      50.468663999999997     49.819794999999999     50.698149000000001
C      48.699665000000003     49.652037000000000     50.107565999999998
C      50.827646999999999     50.446809000000002     49.842436999999997
C      49.913454000000002     49.372401000000004     51.517961000000000
C      49.617623000000002     51.685378000000000     50.248480000000001
C      48.867100999999998     49.122171999999999     51.186076000000000
C      49.953657000000000     51.037923999999997     49.421872999999998
C      49.305312000000001     52.683577000000000     50.019699000000003
C      49.146371000000002     51.113354000000001     51.051093000000002
C      49.278396999999998     52.643771999999998     48.914555000000000
C      48.063741000000000     51.298630000000003     49.669632000000000
C      50.149540999999999     51.540396000000001     51.136688999999997
C      48.321714999999998     52.455275000000000     49.466752999999997
C      49.368203000000001     52.294227999999997     51.116107000000000
C      50.680914000000001     51.325544999999998     52.028511000000002
C      48.092449000000002     51.055284999999998     50.765593000000003
C      50.710867000000000     51.521230000000003     50.158354000000003
C      50.002059000000003     50.544592000000002     51.560969999999998
C      50.126244000000000     52.158211999999999     49.438434000000001
C      50.953854000000000     50.805833000000000     51.003069000000004
C      49.093944999999998     49.986572000000002     51.904868999999998
C      48.305109000000002     50.057364000000000     51.096775000000001
C      49.479863999999999     51.529406000000002     51.988384000000003
C      49.045819000000002     51.659230999999998     49.378998000000003
C      49.699016000000000     51.680629000000003     48.515290999999998
C      50.309646000000001     52.474404999999997     50.561937000000000
C      48.443683000000000     51.872329000000001     51.485050999999999
C      48.596694999999997     51.926636000000002     50.394519000000003
C      50.290042000000000     52.390799999999999     51.757812999999999
C      48.560144000000001     51.934224000000000     48.454720000000002
C      48.460082999999997     50.860835000000002     51.857125000000003
C      51.144326000000000     51.926125999999996     51.133434000000001
C      49.669037000000003     49.088104000000001     50.430115999999998
C      47.542363000000002     51.901819000000003     48.901577000000003
