38

C      50.943689999999997     50.277047000000003     50.393985000000001
C      49.547400000000003     51.405383999999998     49.997214000000000
C      50.568570000000001     51.993073000000003     49.978110000000001
C      49.715459000000003     52.498272999999998     49.568285000000003
C      50.482897000000001     50.958087999999996     49.689675000000001
C      50.353932000000000     51.202311000000002     50.741090000000000
C      48.793768000000000     50.311093000000000     50.073160999999999
C      50.193261999999997     50.214849999999998     51.241607999999999
C      51.406801000000002     51.276032000000001     50.178178000000003
C      49.550041999999998     50.609222000000003     49.219087000000002
C      48.929116000000000     51.790337000000001     49.197902999999997
C      50.530270999999999     50.704250000000002     48.642878000000003
C      48.473560999999997     51.335312999999999     50.161698999999999
C      49.444156999999997     49.539451000000000     49.642198999999998
C      51.555737999999998     50.973851000000003     48.372850999999997
C      51.124673999999999     51.570419000000001     49.151479000000002
C      49.850133000000000     50.350631000000000     50.230882999999999
C      51.587966999999999     51.642563000000003     47.480925999999997
C      51.718384000000000     52.123761000000002     48.460057999999997
C      49.265751000000002     49.711616999999997     50.871291999999997
C      50.268656000000000     49.383226999999998     50.430655999999999
C      49.770338000000002     52.178390999999998     50.713773000000003
C      52.505397000000002     51.414786999999997     48.093719999999998
C      50.465463000000000     49.903936999999999     49.430956999999999
C      51.411358000000000     50.506042000000001     49.362498000000002
C      48.819510999999999     52.365855000000003     50.150869000000000
C      50.655509000000002     52.515104999999998     48.937987000000000
C      52.178350999999999     51.341462999999997     49.205703999999997
C      50.561999999999998     51.691567999999997     47.053797000000003
C      51.988393000000002     50.616799000000000     47.433233999999999
C      50.715155000000003     51.697558000000001     48.153922000000001
C      49.373519999999999     48.720278999999998     50.385019999999997
C      50.860283000000003     50.753542000000003     47.570424000000003
C      48.788040000000002     51.842511999999999     51.113374000000000
C      50.003016000000002     51.615642000000001     48.992896000000002
C      48.461520000000000     50.803500000000000     49.158315000000002
C      49.266317999999998     50.880580000000002     50.940128000000001
C      51.341335999999998     51.012571999999999     46.603059000000002
