38

C      49.914890999999997     49.509580000000000     50.606051000000001
C      49.574022999999997     50.418067000000001     51.143256000000001
C      49.732711999999999     51.249496999999998     50.452382000000000
C      48.734214999999999     50.829996999999999     50.551879999999997
C      49.374189000000001     49.410992000000000     49.529367999999998
C      49.193010999999998     48.697099000000001     50.320044000000003
C      49.186114000000003     51.200197000000003     49.504553999999999
C      50.290424000000002     50.988776999999999     49.545706000000003
C      50.407809000000000     49.862050000000004     49.579917999999999
C      48.137721999999997     51.270228000000003     49.790084000000000
C      49.481430000000003     48.273794000000002     49.319977999999999
C      48.310578999999997     49.208162999999999     49.864300000000000
C      48.842787000000001     49.749394000000002     50.609332000000002
C      50.511594000000002     50.479799000000000     50.530475000000003
C      49.547113000000003     50.325035000000000     50.018374999999999
C      48.901398999999998     51.919955999999999     50.324142000000002
C      48.726667999999997     48.899051999999998     48.860252000000003
C      47.749426999999997     48.437407999999998     48.791763000000003
C      47.840212999999999     49.524726999999999     48.969374000000002
C      48.581708999999996     50.238385999999998     49.570239999999998
C      50.305022000000001     51.252068999999999     51.361365999999997
C      48.154184000000001     49.202750000000002     47.976118999999997
C      48.813774000000002     49.942968999999998     48.562935000000003
C      47.446057000000003     51.547777000000004     48.984470999999999
C      47.804380000000002     50.273153000000001     48.179043999999998
C      50.999305999999997     49.470562999999999     50.425714999999997
C      50.746487000000002     51.591830000000002     50.379237000000003
C      48.435972999999997     48.152185000000003     49.650272000000001
C      47.819707999999999     50.230567999999998     50.318041000000001
C      48.411985000000001     50.978672000000003     48.758344999999998
C      47.096809000000000     51.096457999999998     50.064611999999997
C      49.889299999999999     52.216607000000003     50.875706999999998
C      48.695020000000000     47.834873000000002     48.614564000000001
C      49.180463000000003     51.470025999999997     51.351129999999998
C      50.264102000000001     48.800328000000000     49.868524000000001
C      49.887475000000002     52.039867000000001     49.742942999999997
C      50.655127000000000     52.688115000000003     50.220044999999999
C      47.546118000000000     50.499771000000003     49.264071000000001
