38

C      49.261713999999998     50.005370999999997     50.202190999999999
C      48.823725000000003     49.459420000000001     51.017524000000002
C      48.928981000000000     49.002105000000000     50.055034999999997
C      49.645786000000001     50.058525000000003     51.298735999999998
C      49.841014000000001     49.176091000000000     50.661099000000000
C      48.443249999999999     48.759481000000001     51.741832000000002
C      47.348522000000003     48.580989000000002     51.454206999999997
C      48.115828999999998     49.773099999999999     50.269342000000002
C      48.093826000000000     48.747070999999998     50.695335999999998
C      48.643470999999998     49.830950999999999     52.008657999999997
C      49.114151999999997     48.402960999999998     50.963177999999999
C      47.676935999999998     49.198858999999999     52.360678000000000
C      49.503188999999999     49.084231000000003     51.779783000000002
C      48.506846000000003     50.772205000000000     49.996518999999999
C      49.292777999999998     50.913705999999998     50.757598999999999
C      47.777641000000003     49.587811000000002     51.330227999999998
C      49.669097999999998     50.045411000000001     52.382770000000001
C      49.103814999999997     50.854005999999998     51.844673000000000
C      50.139386999999999     51.026001000000001     51.448385000000002
C      50.112839999999998     51.550632000000000     50.453561000000001
C      49.729790000000001     52.575346000000003     50.584521000000002
C      50.422866999999997     52.098931000000000     51.358970999999997
C      48.645395000000001     49.755141999999999     49.311776999999999
C      49.641109000000000     52.834046999999998     51.669747999999998
C      48.394359999999999     50.454836000000000     51.090563000000003
C      50.245825000000004     50.435585000000003     50.464950999999999
C      48.491340999999998     47.982438999999999     50.060268999999998
C      47.832186000000000     48.038702000000001     52.282364000000001
C      47.925410999999997     48.895538999999999     49.622047000000002
C      48.207805000000000     47.803761999999999     51.213926999999998
C      49.033833999999999     51.791789999999999     50.193733999999999
C      49.574057000000003     50.931986999999999     49.692560000000000
C      50.532961000000000     53.169573999999997     51.075409999999998
C      48.854821000000001     48.483997000000002     49.119407000000002
C      49.126302000000003     47.345886000000000     50.693663999999998
C      49.595880000000001     48.149828999999997     50.003849000000002
C      49.348892999999997     51.826326000000002     51.307496000000000
C      47.159108000000003     49.225656000000001     50.465986999999998
