38

C      50.414893999999997     49.834713000000001     50.439751000000001
C      50.619965000000001     48.776519999999998     50.661346000000002
C      50.478329000000002     48.554602000000003     51.754828000000003
C      49.883446999999997     49.277279000000000     51.238909999999997
C      50.926116999999998     49.570126999999999     51.413156999999998
C      50.608826999999998     47.694391000000003     50.780315999999999
C      51.013444000000000     50.604421000000002     50.984200999999999
C      49.660463000000000     48.253487999999997     51.034716000000003
C      51.226736000000002     51.675691000000000     51.113289999999999
C      49.984270000000002     48.119013000000002     49.977390000000000
C      50.011017000000002     50.869036999999999     50.471210999999997
C      49.600107000000001     49.058995000000003     50.260192000000004
C      50.084550999999998     50.282176000000000     51.377597000000002
C      50.486941999999999     49.101396999999999     49.613602000000000
C      48.823025000000001     49.120677999999998     51.038516000000001
C      51.779755999999999     50.902571000000002     51.711134999999999
C      50.257429000000002     51.317405999999998     51.495341000000003
C      49.284103000000002     49.869981000000003     52.844726000000001
C      50.166986000000001     49.592688000000003     52.232537000000001
C      50.585498000000001     47.252890999999998     49.697654999999997
C      50.416876000000002     48.178055999999998     48.983811000000003
C      49.174224000000002     49.869329999999998     51.768324000000000
C      51.036202000000003     51.560234000000001     52.223894999999999
C      50.330205999999997     50.269145999999999     53.086374999999997
C      50.269483000000001     51.939700000000002     50.590553000000000
C      50.833804000000001     50.483258999999997     52.105556999999997
C      49.730879000000002     50.719856000000000     52.285303999999996
C      49.211669000000001     50.919052999999998     51.303806999999999
C      49.327406000000003     50.034984999999999     50.655332000000001
C      49.376775000000002     48.814670999999997     52.058684999999997
C      49.688360000000003     49.927810000000001     49.611623999999999
C      48.354750000000003     50.178728999999997     51.130130000000001
C      49.492730999999999     48.842593000000001     49.210059999999999
C      48.613180000000000     50.666145999999998     52.219786999999997
C      51.104292999999998     48.206632999999997     49.872430999999999
C      50.983652999999997     51.239134999999997     50.095599000000000
C      48.663507000000003     49.511220000000002     49.961832000000001
C      48.674095999999999     48.138933000000002     51.524096999999998
