38

C      49.349291999999998     50.073895000000000     50.346758000000001
C      50.441468999999998     49.933069000000003     50.035091999999999
C      49.705876000000004     49.163910999999999     49.865144000000001
C      48.794434000000003     48.975897000000003     50.460711000000003
C      48.693362999999998     49.626212000000002     49.553438000000000
C      49.640554999999999     50.031709999999997     49.272044999999999
C      49.879826000000001     50.909872999999997     49.810676000000001
C      48.331653000000003     49.056075000000000     48.681893000000002
C      47.945028999999998     48.835652000000003     49.753796999999999
C      49.515003999999998     48.186526000000001     50.221077000000001
C      48.197651999999998     47.935318000000002     49.031790000000001
C      49.456229000000000     49.134197999999998     48.686700000000002
C      50.186363999999998     50.645232999999998     50.836781999999999
C      50.474651999999999     49.327872999999997     49.098089000000002
C      49.980938999999999     48.305022999999998     49.208219999999997
C      49.190455000000000     47.514369000000002     49.399529000000001
C      47.494134000000003     49.294319999999999     48.006587000000003
C      48.963726000000001     48.042873000000000     51.131672999999999
C      49.643980999999997     50.948151000000003     48.703367999999998
C      50.960759000000003     50.903126000000000     50.047395000000002
C      48.938068999999999     48.573801000000003     49.425136999999999
C      48.438243000000000     47.913800999999999     50.141739999999999
C      50.421716000000004     51.854962000000000     49.817081999999999
C      49.248021999999999     47.168581000000003     50.462986999999998
C      50.016986000000003     49.981845000000000     48.256326999999999
C      47.935231999999999     48.257232999999999     48.023598000000000
C      50.108122000000002     47.720477000000002     50.979610999999998
C      50.556300999999998     48.520932999999999     50.131484999999998
C      49.650784000000002     51.605910999999999     50.620497000000000
C      50.213693999999997     47.437348999999998     49.886273000000003
C      47.239564999999999     47.580956999999998     48.619320000000002
C      47.322738999999999     48.642693999999999     48.888607999999998
C      50.734850000000002     51.616129000000001     50.864775000000002
C      46.832867999999998     48.378481999999998     47.933672999999999
C      47.504956000000000     48.665940999999997     47.084814000000001
C      47.363636999999997     47.887267000000001     49.726553000000003
C      50.612907000000000     50.476799999999997     49.073974999999997
C      48.870404000000001     50.051946000000001     48.507520000000000
