38

C      49.650458000000000     49.649962000000002     50.405769999999997
C      50.008000000000003     49.858007999999998     51.439309000000002
C      48.970149999999997     49.549920999999998     51.279164000000002
C      49.020135000000003     48.724995999999997     50.530867000000001
C      50.690727000000003     49.383200000000002     50.745362999999998
C      50.086852999999998     48.664935000000000     50.196250999999997
C      48.626449000000001     47.721659000000002     50.738934000000000
C      50.693078000000000     48.276217000000003     51.084614000000002
C      49.972895000000001     48.147610000000000     51.982398000000003
C      50.680745000000002     49.077117000000001     51.845927000000003
C      49.824365999999998     48.873457999999999     51.199140999999997
C      49.296778000000003     48.869537999999999     49.475679000000000
C      51.581293000000002     48.900658999999997     51.149810000000002
C      47.675781000000001     47.513295999999997     50.115966999999998
C      49.269395000000003     50.243918000000001     52.116588999999998
C      51.578322000000000     47.780929000000000     50.697566000000002
C      48.537106000000001     49.346522000000000     52.260699000000002
C      51.163003000000003     48.607726999999997     50.108547000000002
C      48.407224999999997     48.268709000000001     49.773876000000001
C      48.918081999999998     48.476287999999997     51.610835999999999
C      49.423960999999998     47.859329000000002     49.940286000000000
C      49.101557999999997     47.405897000000003     51.752037999999999
C      48.642764999999997     47.161952999999997     49.750134000000003
C      50.170144999999998     48.178356000000001     49.216870999999998
C      49.702607000000000     47.843139999999998     50.957565000000002
C      49.336992000000002     50.577621000000001     51.010891000000001
C      48.636392999999998     46.857824000000001     48.695481999999998
C      49.033240999999997     47.883606999999998     48.935516999999997
C      49.616231999999997     49.180273999999997     52.212122000000001
C      50.520637999999998     47.667444000000003     50.180503999999999
C      47.587882999999998     46.869199000000002     48.311000999999997
C      50.360326999999998     49.996059000000002     52.442196000000003
C      49.588034999999998     48.697243000000000     48.419930999999998
C      50.414898999999998     50.468922999999997     50.655914000000003
C      51.059820999999999     50.083311999999999     51.530132999999999
C      50.198262000000000     50.867105000000002     51.719762000000003
C      47.748570999999998     46.633707999999999     49.392919999999997
C      47.932848999999997     47.658676000000000     49.014254000000001
