38

C      49.748755000000003     49.113605999999997     50.380156999999997
C      51.691446999999997     50.017038999999997     50.321311999999999
C      50.150063000000003     49.640670999999998     49.580635999999998
C      48.743698000000002     48.785764000000000     50.214561000000003
C      50.765459000000000     50.439163999999998     49.893222000000002
C      49.083013999999999     49.760103999999998     49.806325000000001
C      52.414409999999997     50.722653000000001     50.806480999999998
C      49.020254999999999     49.668441000000001     50.956429000000000
C      50.090822000000003     49.517178000000001     51.278892999999997
C      50.451213000000003     48.504939000000000     50.941851999999997
C      51.515959000000002     51.167496999999997     51.285052999999998
C      50.670513999999997     50.137452000000003     48.780363000000001
C      51.758344000000001     50.084167000000001     51.414959000000003
C      49.363143000000001     48.644477999999999     51.258434999999999
C      50.908231999999998     50.647286000000001     52.033360999999999
C      48.561936000000003     49.099080000000001     49.086457000000003
C      49.648206999999999     48.054535999999999     50.285207999999997
C      51.214044000000001     49.447285999999998     49.457918999999997
C      49.320557999999998     49.484205000000003     52.024656000000000
C      51.083275000000000     49.244084000000001     51.533605000000001
C      49.529577000000003     48.744923999999997     49.400525999999999
C      50.374636000000002     49.744208000000000     52.298181999999997
C      50.535107000000004     48.603816000000002     49.804118000000003
C      50.786937000000002     49.440275000000000     50.458939000000001
C      50.802734000000001     50.366953000000002     50.993600999999998
C      50.388525000000001     49.020724000000001     48.736851999999999
C      51.567692000000001     51.106568000000003     50.191561000000000
C      49.480021999999998     49.701591000000001     48.753000000000000
C      51.669181999999999     50.440809999999999     49.278092999999998
C      48.699660000000002     47.866182999999999     50.834364999999998
C      51.999173999999996     50.780906000000002     52.220995000000002
C      51.291679000000002     48.434854999999999     49.013114999999999
C      49.854270999999997     50.214841999999997     50.475360000000002
C      49.366464999999998     48.692129999999999     48.325668999999998
C      51.477395000000001     49.784624999999998     52.435282999999998
C      48.644987999999998     49.501283000000001     48.049942000000001
C      49.853192000000000     50.499428000000002     51.603631999999998
C      50.185954000000002     48.702528000000001     52.003053000000001
