38

C      48.702491000000002     49.797134999999997     49.474896999999999
C      50.349243000000001     50.391162999999999     49.380358999999999
C      49.671563999999996     49.634551000000002     48.899012999999997
C      51.090632999999997     48.227817999999999     50.510935000000003
C      50.761659000000002     49.905084000000002     48.530529999999999
C      49.320901999999997     50.655523000000002     49.368276000000002
C      51.420709000000002     50.123970000000000     49.406981999999999
C      50.298095000000004     48.981225999999999     50.448179000000003
C      51.002628999999999     50.952441999999998     48.735073999999997
C      51.474116000000002     49.140250000000002     48.845531999999999
C      50.778574999999996     50.024653999999998     50.333475999999997
C      51.481544000000000     49.166285999999999     50.044891999999997
C      50.412047000000001     48.879193000000001     48.577308000000002
C      49.888491000000002     50.603864000000002     48.430391999999998
C      51.018377000000001     51.065717999999997     49.877433000000003
C      49.817236000000001     48.709246000000000     49.502018000000000
C      49.706319000000001     49.749200000000002     49.956274999999998
C      50.021661999999999     48.521622999999998     47.644582000000000
C      50.106909999999999     51.429941999999997     49.271861999999999
C      49.208733000000002     51.521115999999999     50.019246000000003
C      50.139215000000000     47.867733999999999     48.825431000000002
C      48.979396000000001     50.429003000000002     50.404145999999997
C      49.330682000000003     48.334277999999998     50.394167000000003
C      50.929577999999999     48.372104999999998     49.426155000000001
C      50.197065000000002     47.804510999999998     49.990063999999997
C      49.890382000000002     49.969090000000001     50.986221999999998
C      49.232782000000000     47.765828999999997     49.419086000000000
C      50.681713000000002     50.568233999999997     47.680123000000002
C      48.859811000000001     49.315432999999999     50.456749000000002
C      49.958652999999998     49.627929999999999     47.845798000000002
C      49.331615999999997     48.627003000000002     48.540277000000003
C      50.614075999999997     49.391455000000001     49.480671999999998
C      48.871285999999998     49.893774000000001     51.391215000000003
C      50.001964999999998     50.821961999999999     50.289740999999999
C      48.733986000000002     48.725299999999997     49.512039999999999
C      50.310366999999999     51.571207000000001     48.151834999999998
C      49.536299000000000     48.974794000000003     51.266525999999999
C      50.989764000000001     49.211196000000001     47.716723999999999
