38

C      49.578766999999999     50.484130000000000     49.461005999999998
C      49.961319000000003     50.048751000000003     50.897719000000002
C      48.169406000000002     50.042292000000003     50.927253000000000
C      50.903604000000001     50.584237999999999     50.636555999999999
C      49.065877999999998     50.457286000000003     50.466394000000001
C      49.104357999999998     49.448838000000002     51.043605999999997
C      49.193052000000002     49.553075999999997     49.925348000000000
C      50.764448999999999     51.744256999999998     50.073498000000001
C      50.706529000000003     50.776654000000001     49.568038999999999
C      50.004232000000002     50.961823000000003     51.453876999999999
C      50.731620999999997     50.120018000000002     51.652934000000002
C      49.633262000000002     49.973559999999999     51.934471000000002
C      48.225276999999998     51.141674000000002     50.647347000000003
C      49.946826000000001     51.926746999999999     48.405258000000003
C      49.947707000000001     51.492170999999999     49.384366000000000
C      50.655614999999997     49.843443000000001     48.927695999999997
C      50.237608999999999     50.824831000000003     48.577060000000003
C      49.966549999999998     51.019128000000002     50.345635999999999
C      50.888849000000000     48.984408999999999     49.730373000000000
C      49.177644999999998     52.231552000000001     49.230317999999997
C      51.387220999999997     49.971622000000004     49.796760999999996
C      50.194245000000002     49.145736999999997     51.482087999999997
C      50.291299000000002     49.872205999999998     49.931640999999999
C      49.725364999999996     52.138554999999997     50.212484000000003
C      49.905690999999997     49.090902000000000     49.252785000000003
C      49.969160000000002     48.972549000000001     50.427712000000000
C      48.984245000000001     51.322066999999997     49.832965000000002
C      50.929023000000001     49.488619000000000     50.730125999999998
C      49.258175999999999     48.910809000000000     52.005921000000001
C      49.202607999999998     51.522371999999997     50.928699000000002
C      49.160235999999998     51.173096000000001     48.713155999999998
C      49.601247999999998     49.910356999999998     48.551459000000001
C      51.375864999999997     50.649982999999999     48.728929000000001
C      50.295059999999999     52.509571999999999     49.325566999999999
C      48.611629000000001     52.226207000000002     50.286064000000003
C      50.921233999999998     51.658757999999999     48.933813000000001
C      48.521503000000003     49.732011000000000     51.947850000000003
C      48.905434000000000     50.656123000000001     51.505146000000003
