38

C      50.022035000000002     49.310769999999998     49.931500000000000
C      48.986086999999998     49.053837000000001     49.795865999999997
C      49.522678999999997     48.837676999999999     50.778945000000000
C      49.767384000000000     48.190403000000003     49.926493000000001
C      49.505631999999999     49.854934999999998     49.099392999999999
C      48.588197999999998     50.069729000000002     49.699137999999998
C      50.374476999999999     50.301349999999999     50.200688000000000
C      50.670819000000002     48.611432999999998     49.485337000000001
C      50.385370999999999     50.385328000000001     48.169701000000003
C      50.421830000000000     50.667980000000000     49.200173999999997
C      48.579008000000002     50.223734999999998     48.611714999999997
C      50.624471999999997     48.657862000000002     48.454352999999998
C      48.919970999999997     49.198545000000003     48.368245999999999
C      49.461782999999997     50.738987000000002     49.747815000000003
C      50.748640000000002     47.625503000000002     49.879916999999999
C      49.703031000000003     48.787900000000000     49.022105000000003
C      49.953099000000002     49.404153999999998     48.168855000000001
C      49.671360000000000     48.322220999999999     48.036836000000001
C      51.307613000000003     47.945495000000001     48.909663999999999
C      51.105946000000003     49.478023000000000     49.984321999999999
C      51.537156000000003     48.511116000000001     47.928792999999999
C      49.348911000000001     49.916164000000002     50.497795000000004
C      49.376854999999999     49.121512000000003     47.308172999999996
C      50.364561000000002     49.534303000000001     50.960310999999997
C      50.632601999999999     48.559193999999998     50.545645000000000
C      51.050291999999999     49.530971999999998     47.993107000000002
C      50.173090999999999     47.788995999999997     48.933118999999998
C      50.477755999999999     48.758474000000000     47.395550999999998
C      51.638894999999998     48.487940999999999     49.897471000000003
C      51.380639000000002     50.222479999999997     48.801828000000000
C      49.311300000000003     50.157845999999999     47.785648000000002
C      50.546945000000001     49.594093999999998     49.031692999999997
C      50.680292999999999     47.740903000000003     47.919587999999997
C      49.490223000000000     50.852308000000001     48.635019999999997
C      51.428189000000003     47.798572999999998     50.734361000000000
C      50.253534000000002     49.834366000000003     47.217700999999998
C      51.823670999999997     47.409492999999998     49.744033999999999
C      51.511882999999997     49.081139999999998     48.942078000000002
