38

C      50.525449000000002     50.396794999999997     49.930266000000003
C      51.260041999999999     49.855387999999998     50.560101000000003
C      50.696662000000003     49.291859000000002     51.340089999999996
C      50.851990999999998     50.132854000000002     48.969541000000000
C      51.208190000000002     49.351419999999997     49.611328999999998
C      49.586643000000002     49.360866999999999     51.034522000000003
C      50.129367000000002     49.819592000000000     48.223764000000003
C      52.132984999999998     50.384402000000001     50.888357999999997
C      50.070960999999997     51.488520999999999     47.486510000000003
C      50.914290000000001     49.113003999999997     48.579597000000000
C      51.835084000000002     49.324292000000000     51.289029999999997
C      51.321067999999997     49.441105000000000     52.260784999999998
C      50.508389000000001     48.496819000000002     49.676526000000003
C      50.532615000000000     50.908890000000000     48.304353999999996
C      49.379798999999998     50.804001000000000     46.928660000000001
C      51.173057999999997     50.933047000000002     50.640188999999999
C      51.199541000000004     50.057011000000003     47.950639000000002
C      51.233756999999997     48.740217999999999     50.532423000000001
C      51.583714999999998     50.856462000000001     48.673780999999998
C      52.286551000000003     50.335402000000002     48.000034999999997
C      50.347817999999997     50.420985000000002     47.326844000000001
C      50.270133999999999     50.249811000000001     50.968989999999998
C      51.211751999999997     50.280410000000003     51.551794000000001
C      49.487309000000003     50.687610999999997     48.029423999999999
C      52.546168999999999     50.515619000000001     49.102488999999998
C      51.843969999999999     49.729070999999998     48.805199999999999
C      49.815677999999998     50.492586000000003     49.079841000000002
C      52.210532000000001     50.100068000000000     51.981535000000001
C      49.509098000000002     49.996988999999999     50.075845999999999
C      53.287672000000001     51.337418999999997     49.163801999999997
C      50.186850999999997     48.433444999999999     50.781022999999998
C      50.367790999999997     49.381065999999997     50.295805000000001
C      50.080240000000003     49.436467000000000     49.265526000000001
C      53.324572000000003     50.598503999999998     48.314737999999998
C      51.625708000000003     50.412213999999999     49.708736999999999
C      52.510762999999997     51.366940000000000     48.363067999999998
C      49.469147000000000     48.858248000000003     50.011226000000001
C      48.968449999999997     51.583343999999997     47.626885999999999
