38

C      49.996296000000001     49.711430999999997     49.211089999999999
C      50.676940000000002     49.327728999999998     50.990214000000002
C      51.438315000000003     49.948864999999998     50.508735000000001
C      49.058031000000000     50.098070999999997     48.823833999999998
C      52.077550000000002     49.487046999999997     49.692428000000000
C      50.444642999999999     50.327416999999997     50.069203000000002
C      50.983933000000000     49.514346000000003     49.615130000000001
C      50.814526000000001     51.302298999999998     49.435626999999997
C      50.794612000000001     50.337473000000003     48.962119999999999
C      51.629421999999998     50.500627999999999     49.598722000000002
C      49.302888000000003     50.148715000000003     49.928046000000002
C      49.984802999999999     50.185327000000001     48.231794999999998
C      49.107458999999999     49.161800999999997     49.430008000000001
C      50.711866000000001     50.425106000000000     51.183928999999999
C      49.744830000000000     50.001074000000003     50.925820000000002
C      51.491079999999997     48.786301000000002     49.010410999999998
C      49.602671000000001     49.136383000000002     48.406272999999999
C      50.465659000000002     51.178044000000000     48.363768999999998
C      48.984057000000000     49.267909000000003     50.535549000000003
C      51.439317000000003     48.846594000000003     50.327781000000002
C      49.865738000000000     51.830038999999999     49.043041000000002
C      50.357861999999997     48.674692000000000     49.321410999999998
C      50.712235000000000     49.353470999999999     48.483763000000003
C      48.836911999999998     51.041352000000003     49.378120000000003
C      49.442203999999997     48.351177000000000     50.074443000000002
C      51.562040000000003     51.002749000000001     48.606932999999998
C      50.010410000000000     49.287745000000001     50.158569999999997
C      51.705844999999997     49.833182000000001     48.708300999999999
C      52.236584999999998     48.380062000000002     49.719625000000001
C      48.798347999999997     51.964151999999999     48.757109000000000
C      51.203474999999997     51.057183999999999     50.438217999999999
C      50.476322000000003     48.349604999999997     50.428445000000004
C      49.339551999999998     51.083832999999998     48.348269999999999
C      51.043286999999999     50.283073999999999     47.911085000000000
C      49.429246999999997     48.199660000000002     48.973253000000000
C      49.869616000000001     50.773128000000000     49.240001999999997
C      50.141877999999998     47.628520000000002     49.623033999999997
C      51.185532000000002     47.984388000000003     49.674669999999999
