38

C      50.018321999999998     49.684334999999997     49.373063000000002
C      49.887388000000001     49.053905000000000     50.862186000000001
C      50.439542000000003     49.810659000000001     50.345038000000002
C      50.699905999999999     50.549145000000003     49.624082999999999
C      50.759259999999998     50.099446000000000     48.642484000000003
C      49.933923999999998     50.737833000000002     48.979500999999999
C      50.237459999999999     51.532473000000003     49.726748999999998
C      50.313873999999998     50.895577000000003     47.991990999999999
C      51.714317000000001     50.597931000000003     49.288311999999998
C      50.575245000000002     48.789926000000001     49.987710999999997
C      49.051468999999997     50.195977999999997     49.232073999999997
C      51.334170999999998     51.357177000000000     50.001384999999999
C      51.408043999999997     49.246813000000003     50.561407000000003
C      49.845370000000003     51.750273999999997     48.643684000000000
C      49.164036000000003     49.167444000000003     48.876734999999996
C      51.157600000000002     49.579999999999998     49.521042000000001
C      52.203270000000003     49.748407000000000     49.846423999999999
C      51.551945000000003     50.989576999999997     51.124296000000001
C      51.522652000000001     50.711793999999998     48.178586000000003
C      51.409573000000002     50.294260000000001     50.320728000000003
C      49.713078000000003     50.612566000000001     50.046931000000001
C      50.559494999999998     50.902712999999999     50.644415000000002
C      50.893943000000000     51.289439999999999     48.871307999999999
C      52.322043999999998     50.833970000000001     50.240381999999997
C      49.183196000000002     51.331187999999997     49.438583999999999
C      50.537241000000002     50.900485000000003     51.730338000000003
C      52.136676000000001     49.993445000000001     51.031485000000004
C      48.242131999999998     50.900238999999999     49.031627000000000
C      49.698898999999997     49.948650000000001     48.300730000000001
C      51.824693000000003     49.717073999999997     48.662579999999998
C      49.112473000000001     50.924621999999999     48.334040999999999
C      48.668232000000003     51.890833000000001     48.674312999999998
C      49.810535000000002     50.216169999999998     51.109844000000002
C      50.973345000000002     50.007826000000001     51.270294000000000
C      49.232298999999998     49.695689999999999     50.231250000000003
C      48.604143000000001     50.677506000000001     50.109915000000001
C      49.510790999999998     48.736471999999999     49.824551999999997
C      48.222214999999998     51.725655000000003     49.760835999999998
