38

C      49.658453999999999     50.576101999999999     50.605674999999998
C      50.779288999999999     50.754728000000000     50.831279000000002
C      50.315511999999998     49.809350000000002     51.173451000000000
C      50.540047000000001     49.042687999999998     50.433152000000000
C      50.831833000000003     48.373292999999997     49.628557000000001
C      48.889825999999999     49.312989000000002     49.571382999999997
C      48.946331000000001     48.204270000000001     49.427830000000000
C      49.215291999999998     48.908907999999997     48.639209000000001
C      50.432550999999997     50.037050999999998     50.099378000000002
C      48.810656999999999     48.643346000000001     50.453468000000001
C      49.985936000000002     48.224625000000003     48.974148000000000
C      50.648417000000002     50.173050000000003     49.073410000000003
C      50.805301000000000     49.010050000000000     48.687857000000001
C      49.807110999999999     48.350645000000000     50.080067000000000
C      51.569671999999997     48.692523000000001     50.400835000000001
C      50.044733999999998     48.667451999999997     47.960017999999998
C      49.536821000000003     50.179239000000003     49.530794000000000
C      51.073233999999999     48.974400000000003     51.366072000000003
C      49.808487999999997     50.786768000000002     48.690297999999999
C      49.954647999999999     49.673212999999997     48.448155000000000
C      49.548605999999999     49.470815999999999     50.422255999999997
C      50.236415000000001     51.025863000000001     49.722141000000001
C      48.945020999999997     49.996298000000003     48.608092999999997
C      49.547502999999999     50.400373000000002     47.712870000000002
C      50.726855000000000     48.019731000000000     50.701452000000003
C      51.292400000000001     50.039693000000000     51.669671000000001
C      51.329081000000002     49.791452999999997     50.623479000000003
C      50.296292999999999     49.586235000000002     47.411622999999999
C      49.218691000000000     49.365637000000000     47.657184000000001
C      51.858193999999997     48.642595999999998     49.303379000000000
C      51.175531999999997     49.413240000000002     49.623722000000001
C      50.042876999999997     49.219707999999997     49.446635000000001
C      50.331653000000003     50.604266000000003     46.954154000000003
C      50.826112000000002     51.225566999999998     48.792518000000001
C      50.628933000000004     50.445470999999998     48.014321000000002
C      49.487124999999999     49.903416000000000     46.718501000000003
C      52.210968000000001     49.488802000000000     50.018605000000001
C      52.123145999999998     49.302618000000002     51.168171999999998
