38

C      51.306595999999999     49.945186999999997     50.697062000000003
C      50.664501999999999     50.772551000000000     50.285611000000003
C      51.336826000000002     49.543411999999996     48.203605000000003
C      50.571137000000000     49.939712999999998     48.900423000000004
C      51.413584000000000     50.300750000000001     49.616736000000003
C      49.675398999999999     51.178677999999998     48.771329000000001
C      51.306680999999998     48.253529999999998     49.452317999999998
C      50.677909999999997     51.003281000000001     49.193291000000002
C      49.562078000000000     50.095097000000003     48.551971999999999
C      51.306775999999999     49.284080000000003     49.278848000000004
C      48.803707000000003     50.611963000000003     49.182518000000002
C      49.413240000000002     50.840656000000003     47.740402000000003
C      48.543754000000000     50.273772000000001     48.151398999999998
C      50.542870000000001     49.741643000000003     49.954255000000003
C      51.147716000000003     48.926231000000001     50.285226000000002
C      50.329645999999997     48.800677000000000     49.486066999999998
C      51.899906000000001     48.666452000000000     48.597126000000003
C      50.442670000000000     50.687966000000003     48.129733999999999
C      52.105646000000000     48.401359999999997     50.191989000000000
C      50.866334999999999     49.119414999999996     51.316127000000002
C      52.182048000000002     49.789372999999998     48.930528000000002
C      48.656374999999997     51.362623999999997     48.371526000000003
C      51.386211000000003     47.670884000000001     48.543050999999998
C      52.645147999999999     48.862642000000001     49.356988000000001
C      50.228216000000003     49.977578999999999     50.967289999999998
C      51.943649000000001     49.100192000000000     51.043650999999997
C      52.062455000000000     49.502583999999999     50.022472999999998
C      52.266986000000003     47.806596999999996     49.254579000000000
C      50.570461000000002     47.990864000000002     50.216785000000002
C      49.818789000000002     50.442998000000003     49.589664999999997
C      51.464818000000001     50.565100999999999     48.558605999999997
C      50.074734999999997     48.947308999999997     50.550893000000002
C      52.171202000000001     50.550424999999997     50.371296999999998
C      51.376247999999997     48.133031000000003     50.987175999999998
C      51.551367999999997     47.439692999999998     50.112921999999998
C      50.409587000000002     47.748148000000000     49.120441000000000
C      50.796875000000000     48.634861999999998     48.523428000000003
C      50.311866000000002     48.155676000000000     51.284483000000002
