38

C      50.592294000000003     50.514217000000002     49.503689000000001
C      50.386539999999997     49.996034000000002     50.506126999999999
C      51.306365999999997     49.572526000000003     50.926800999999998
C      51.253258000000002     49.667195999999997     49.814855999999999
C      49.569996000000003     50.246960999999999     49.824595000000002
C      51.310765000000004     50.578499999999998     50.383774000000003
C      50.598860000000002     48.900219000000000     50.401200000000003
C      49.883623000000000     50.074126000000000     48.741084000000001
C      48.807962000000003     50.988923999999997     49.898347999999999
C      49.217939999999999     49.305210000000002     49.271143000000002
C      49.643225999999999     51.093868000000001     49.145777000000002
C      48.593153999999998     51.335540000000002     48.847788000000001
C      50.242499000000002     49.476044999999999     49.564413999999999
C      51.974362999999997     50.389330999999999     51.246119000000000
C      49.095945000000000     52.004030000000000     49.561422000000000
C      50.936611999999997     49.696328000000001     48.759104999999998
C      52.700628999999999     51.233975999999998     51.325772999999998
C      48.553058000000000     49.883578000000000     49.977967000000000
C      47.514412999999998     51.509973000000002     48.786937999999999
C      46.496858000000003     51.955261999999998     48.705669000000000
C      49.511786999999998     49.278635000000001     50.351312999999998
C      50.091503000000003     48.953017000000003     48.636726000000003
C      47.884076000000000     50.653848000000004     49.412227000000001
C      49.883139999999997     48.463130000000000     49.643358999999997
C      48.017204999999997     51.720598000000003     49.751617000000003
C      47.255699000000000     52.423966000000000     49.371211000000002
C      50.964542000000002     48.699643000000002     49.349176000000000
C      52.365569999999998     50.899886000000002     50.314407000000003
C      53.028087999999997     50.239742000000000     50.931303000000000
C      51.697347999999998     48.771895999999998     50.238577999999997
C      47.680905000000003     53.327939000000001     48.880837999999997
C      52.201552999999997     49.802391999999998     50.325772999999998
C      46.596127000000003     53.072158999999999     48.749834999999997
C      51.849373999999997     51.141618000000001     52.049962000000001
C      51.652251999999997     51.435032000000000     50.990682000000000
C      48.843418999999997     50.296478999999998     48.992418999999998
C      48.265290999999998     52.379590999999998     48.897930000000002
C      47.378342000000004     52.462899999999998     48.238765999999998
