38

C      49.305923999999997     50.675550000000001     50.087665000000001
C      49.354928000000001     51.664726000000002     49.713057999999997
C      49.610146999999998     49.813873000000001     49.114795000000001
C      49.600406000000000     51.633372999999999     48.630566999999999
C      49.960639999999998     50.839142000000002     49.270235000000000
C      48.260423000000003     50.878172999999997     50.024374999999999
C      50.616205999999998     50.079850999999998     48.833075000000001
C      50.267378000000001     51.208660000000002     50.229263000000003
C      48.120592000000002     49.912052000000003     50.551160000000003
C      49.906804000000001     50.501207000000001     50.931575000000002
C      50.227164999999999     50.065534999999997     49.971094000000001
C      49.713144000000000     49.044783000000002     49.885980000000004
C      49.574406000000003     50.914793000000003     51.858925999999997
C      50.469172999999998     51.800862000000002     49.346736999999997
C      49.271922000000004     49.734791000000001     50.567881000000000
C      49.406539000000002     51.482171000000001     50.846577000000003
C      48.818320000000000     50.562137000000000     51.097045000000001
C      47.790084999999998     49.325665000000001     49.673248999999998
C      51.575999000000003     50.612166999999999     48.632792000000002
C      48.708134000000001     49.909930000000003     49.655943000000001
C      49.504280000000001     48.767671000000000     50.982360000000000
C      51.013558000000003     50.801099000000001     49.568970999999998
C      50.612279999999998     51.139451000000001     48.465761999999998
C      50.961902000000002     50.478749999999998     50.691778999999997
C      48.821587000000001     48.986038000000001     49.133276000000002
C      50.052066000000003     52.268805999999998     50.309660000000001
C      50.555021000000004     50.283813000000002     51.747509999999998
C      48.890948999999999     50.850431999999998     49.083727000000003
C      47.871384999999997     50.313547000000000     49.115264000000003
C      48.643858999999999     48.930306000000002     50.243954000000002
C      49.532763000000003     49.784457000000003     51.643723000000001
C      49.657777000000003     50.545971000000002     48.281838000000000
C      47.866636000000000     49.287790000000001     48.589531000000001
C      48.731304999999999     49.939003000000000     48.505578999999997
C      48.593465999999999     49.313788000000002     51.322969999999998
C      50.459173999999997     51.353223999999997     51.299183999999997
C      50.331927999999998     49.505056000000003     50.902219000000002
C      49.711745999999998     52.590608000000003     49.252802000000003
