38

C      50.609839000000001     50.023952000000001     50.399751000000002
C      51.685558999999998     49.875599000000001     50.234347999999997
C      50.729652000000002     48.213554000000002     49.894343999999997
C      52.184305000000002     49.316937000000003     48.499791000000002
C      51.427036000000001     49.080078000000000     49.500025000000001
C      50.022368000000000     50.649909000000001     49.720576000000001
C      50.113607999999999     49.091990000000003     50.059266999999998
C      50.346214000000003     48.280298999999999     50.899233000000002
C      52.499163000000003     48.509256000000001     49.180709999999998
C      51.981059000000002     49.253565999999999     51.160170999999998
C      51.655143000000002     50.076993999999999     49.072488000000000
C      51.080342000000002     49.050956999999997     50.531647999999997
C      51.537638999999999     48.461779999999997     48.660637000000001
C      52.148283999999997     48.753827000000001     50.226801999999999
C      52.057690000000001     47.497405999999998     48.726360000000000
C      51.621991000000001     48.867598000000001     47.643132999999999
C      50.638123000000000     48.421883000000001     48.047091000000002
C      52.479399000000001     49.545228999999999     49.552945000000001
C      50.438274999999997     48.789999999999999     49.042718000000001
C      51.452410000000000     48.069023999999999     50.757781000000001
C      50.549520000000001     51.105463999999998     50.605452000000000
C      50.095962999999998     50.398694999999996     51.311022000000001
C      50.178159000000001     49.325696000000001     51.139004000000000
C      51.488078000000002     47.763956000000000     47.820236000000001
C      51.072602000000003     49.419272999999997     48.422057000000002
C      50.937337999999997     48.298074000000000     46.991022000000001
C      50.636918999999999     49.316564999999997     47.401186000000003
C      52.299438000000002     50.648640999999998     49.750160000000001
C      52.691414000000002     50.282831000000002     48.753452000000003
C      49.570180000000001     49.687190000000001     49.324772000000003
C      51.713357999999999     47.937854999999999     49.651952999999999
C      50.862769000000000     47.686838000000002     48.907330999999999
C      51.119807000000002     49.892848000000001     51.326749999999997
C      50.648361000000001     49.816194000000003     49.358941000000002
C      52.462271000000001     48.306387000000001     48.081971000000003
C      49.526747999999998     49.949536000000002     50.439126000000002
C      51.064419000000001     48.785680999999997     51.584651999999998
C      51.156598000000002     50.739094000000001     49.766451000000004
