38

C      50.021864000000001     50.303702999999999     50.835473000000000
C      49.967723999999997     49.910738000000002     49.787810000000000
C      49.347895000000001     50.135159999999999     48.842528000000001
C      49.887726000000001     48.387253999999999     50.886107000000003
C      49.343947000000000     49.435997000000000     50.624755999999998
C      49.938727999999998     49.226308000000003     48.908163000000002
C      50.951236000000002     50.116399000000001     50.233057000000002
C      49.611196999999997     48.430652000000002     48.189050999999999
C      50.924050999999999     49.892994999999999     51.346203000000003
C      50.863152999999997     49.222084000000002     49.595413999999998
C      50.949539000000001     50.927973000000001     50.957422000000001
C      50.038598000000000     48.434140999999997     52.011850000000003
C      51.881841000000001     49.857621000000002     49.763770999999998
C      49.635624000000000     49.536476999999998     47.903782999999997
C      51.488945999999999     49.202267999999997     50.579231999999998
C      49.479058000000002     47.460664999999999     48.815098999999996
C      51.997221000000003     51.295606999999997     51.005406000000001
C      48.812851999999999     49.167682999999997     48.536065000000001
C      49.032837000000001     48.749561999999997     51.436971000000000
C      48.913445000000003     48.479785999999997     50.264839000000002
C      49.232892000000000     48.429194000000003     49.195546999999998
C      49.923264000000003     49.422544000000002     51.556986000000002
C      50.415844999999997     49.308864999999997     50.615360000000003
C      48.561214999999997     48.052123999999999     48.458430999999997
C      50.305374000000000     48.197442000000002     49.078726000000003
C      48.622475999999999     47.625433000000001     49.555667999999997
C      49.895484000000003     48.803654000000002     49.892755999999999
C      49.684230999999997     47.734796000000003     49.922536999999998
C      50.754468000000003     49.310934000000003     52.265034999999997
C      51.852874999999997     50.206287000000003     50.853406000000000
C      51.207068999999997     48.312643000000001     52.299042999999998
C      48.201703000000002     48.668239000000000     49.374746000000002
C      47.651918999999999     47.764597000000002     49.030752000000000
C      50.860843000000003     48.695036999999999     51.343029999999999
C      51.741501000000000     49.253065999999997     51.681638000000000
C      51.583196999999998     50.956665000000001     50.024231999999998
C      49.005460999999997     49.406399999999998     49.595902000000002
C      50.355455999999997     50.976557999999997     49.990993000000003
