38

C      50.180731000000002     50.103216000000003     49.758513000000001
C      49.641792000000002     49.698580000000000     50.603382000000003
C      49.339559000000001     48.665560999999997     50.329414999999997
C      48.592646999999999     49.532327000000002     50.211109999999998
C      50.946049000000002     50.818185999999997     49.923890000000000
C      50.772928000000000     49.911133999999997     50.637351000000002
C      49.429780000000001     49.406489000000001     49.539402000000003
C      51.509314000000003     49.110013000000002     50.380465999999998
C      50.955813999999997     51.443942000000000     49.006577000000000
C      52.689762000000002     49.619987000000002     51.668039000000000
C      52.200951000000003     49.523924999999998     49.518788000000001
C      51.145840999999997     49.712885000000000     49.564039999999999
C      50.379080999999999     49.053694999999998     50.037556000000002
C      50.706685999999998     50.404350999999998     48.854312999999998
C      50.333995000000002     49.335996000000002     48.940767999999998
C      48.627828999999998     48.702964999999999     49.439900999999999
C      53.683515000000000     49.360714000000002     52.094045000000001
C      51.764606000000001     50.223776999999998     50.292667000000002
C      49.626064000000000     50.193981000000001     48.820925000000003
C      50.014375999999999     51.137842999999997     48.371274999999997
C      51.688755000000000     49.758797999999999     51.267411000000003
C      49.780284000000002     48.408515000000001     49.327356000000002
C      52.735351999999999     50.431638999999997     49.872999999999998
C      53.521949999999997     50.334335000000003     51.581026999999999
C      52.910905000000000     48.574686999999997     52.013781000000002
C      49.166159000000000     50.442213000000002     49.881563999999997
C      48.967742000000001     51.039884000000001     48.958298999999997
C      49.969625999999998     51.104643000000003     49.451877000000003
C      53.354796999999998     48.996561000000000     51.073112000000002
C      53.494039999999998     49.988492000000001     50.541921000000002
C      52.162387000000003     48.735942000000001     51.220452000000002
C      52.574038999999999     50.492721000000003     50.995379999999997
C      52.531770999999999     49.498834000000002     50.550485999999999
C      54.289648000000000     49.601190000000003     51.201555999999997
C      52.704067000000002     50.187190000000001     48.785414000000003
C      51.763762999999997     50.569882999999997     49.237071999999998
C      50.585555999999997     51.863276999999997     49.975828000000000
C      48.568282000000004     49.917458000000003     49.119819000000000
