38

C      51.153118999999997     49.692444000000002     50.414994999999998
C      50.844766000000000     50.733305999999999     50.045676000000000
C      50.233967000000000     49.066187999999997     50.583266999999999
C      50.352893000000002     49.636501000000003     49.689337999999999
C      50.184441999999997     50.167619000000002     50.651513000000001
C      49.810031000000002     50.579388000000002     49.617142999999999
C      51.169227999999997     50.508395000000000     51.109631000000000
C      49.519174000000000     48.964516000000003     49.419891999999997
C      49.777292000000003     48.860190000000003     48.315038999999999
C      50.722070000000002     49.510558000000003     48.356378999999997
C      50.540615000000003     48.734470999999999     49.093837999999998
C      50.222371000000003     50.861103999999997     51.466797999999997
C      51.348664999999997     49.515635000000003     49.304054999999998
C      50.577401999999999     49.637965999999999     51.487611000000001
C      50.798817999999997     51.541018000000001     50.841076999999999
C      49.774794000000000     49.834930999999997     48.803449999999998
C      48.787900000000000     49.233787000000000     48.656910000000003
C      49.745972999999999     50.103383999999998     52.081533999999998
C      49.478436000000002     49.418922999999999     51.250661999999998
C      49.833886000000000     51.870725000000000     51.372521999999996
C      51.092526999999997     48.679555000000001     50.022139000000003
C      48.842080000000003     50.138584999999999     49.271510999999997
C      50.720436999999997     50.406241999999999     48.999963000000001
C      49.370227000000000     49.738126000000001     50.155768000000002
C      50.808172999999996     50.411172999999998     52.255352999999999
C      50.299422000000000     51.481591000000002     52.346904000000002
C      49.813222000000003     51.187835000000000     50.503835000000002
C      48.971938999999999     50.216496999999997     48.162767000000002
C      48.842461000000000     50.712014000000003     50.189602999999998
C      50.784872000000000     52.290162000000002     51.699365999999998
C      49.187547000000002     48.704385000000002     50.453055999999997
C      49.295994000000000     51.131881999999997     52.007936000000001
C      48.486083999999998     49.217402000000000     49.755715000000002
C      48.497323000000002     49.730311000000000     50.769647999999997
C      51.258752000000001     51.315753000000001     51.828502999999998
C      48.864913000000001     51.468359999999997     51.019322000000003
C      49.258713999999998     50.456220000000002     51.143414000000000
C      50.077762999999997     48.190486000000000     49.951549999999997
