38

C      50.223937999999997     50.093601000000000     49.804864000000002
C      50.755681000000003     49.134076000000000     49.501652000000000
C      51.019094000000003     50.706218999999997     50.303305000000002
C      51.216754000000002     51.423706000000003     48.411845999999997
C      50.323810999999999     50.124229000000000     50.895826000000000
C      49.700045000000003     49.252972999999997     49.275869999999998
C      50.062078999999997     49.171159000000003     50.339568000000000
C      49.369593999999999     49.811320000000002     52.288144000000003
C      51.465786000000001     50.355124000000004     48.458545999999998
C      51.080832999999998     49.603605000000002     50.393573000000004
C      49.515250999999999     49.507359999999998     51.233651000000002
C      50.673220999999998     50.820123000000002     49.149259999999998
C      49.700175000000002     50.653570000000002     48.662481999999997
C      50.956999000000003     48.510064999999997     50.383409999999998
C      50.612155000000001     49.123669999999997     51.269371999999997
C      50.538652999999996     50.670332000000002     47.988038000000003
C      50.067273000000000     51.168129000000000     50.685102999999998
C      50.190272999999998     51.709727000000001     48.821939999999998
C      50.910671999999998     49.607560999999997     47.801246999999996
C      51.343209000000002     50.065235000000001     51.320152000000000
C      49.131183000000000     50.159647999999997     49.441934000000003
C      50.474899999999998     49.858866999999996     48.757320000000000
C      51.625281999999999     51.181621000000000     49.454006000000000
C      50.433881000000000     48.791218000000001     48.522523999999997
C      50.714556000000002     50.936934000000001     51.525896000000003
C      49.359231999999999     50.346760000000003     50.485804999999999
C      51.464882000000003     49.269469999999998     48.703749999999999
C      50.420276999999999     49.948070000000001     51.965286999999996
C      50.643189999999997     51.636653000000003     49.872382000000002
C      50.099502999999999     48.287736000000002     49.651569000000002
C      49.721569000000002     51.068555000000003     49.665985999999997
C      49.012487999999998     49.344510999999997     50.186732999999997
C      49.612596000000003     50.611566000000003     51.548830000000002
C      51.194170999999997     52.218192999999999     49.146915999999997
C      51.709629000000000     49.019067999999997     51.047407999999997
C      51.361863000000000     50.056772000000002     49.479551000000001
C      51.325794000000002     49.277137000000003     52.089801999999999
C      51.802199000000002     49.046635999999999     49.805903000000001
