38

C      49.358556999999998     50.276347000000001     49.962547999999998
C      48.669269999999997     49.643450999999999     49.444203999999999
C      49.548278000000003     51.205829000000001     49.427146999999998
C      50.029639000000003     50.870705000000001     50.525682000000003
C      49.460518000000000     50.242780000000003     48.883828999999999
C      47.876243000000002     51.167197000000002     50.232204000000003
C      50.556995000000001     51.336069999999999     49.730034000000003
C      47.973931000000000     48.839886999999997     49.165649999999999
C      49.818275999999997     51.919854999999998     50.292259000000001
C      50.349851999999998     50.286485999999996     49.558397999999997
C      48.967694000000002     51.196942999999997     50.346929000000003
C      49.748238999999998     49.351131000000002     49.549987999999999
C      47.394779000000000     47.896433000000002     49.059674000000001
C      49.470689000000000     51.414579000000003     51.288249000000000
C      50.164774000000001     49.785038999999998     50.527838000000003
C      48.933264999999999     48.609710999999997     49.711916000000002
C      51.067850000000000     50.575522999999997     50.351753000000002
C      51.588048000000001     51.513117999999999     49.985393000000002
C      51.853499999999997     52.447493999999999     49.454825999999997
C      51.086140999999998     51.831597000000002     48.952933000000002
C      48.072011000000003     49.143495999999999     50.231631999999998
C      48.374313999999998     50.199226000000003     50.396143000000002
C      47.915641999999998     47.165577999999996     48.396362000000003
C      48.537188999999998     50.742029000000002     49.416235999999998
C      49.124487999999999     49.367334000000000     50.486840999999998
C      47.993336999999997     47.057434000000001     49.510294999999999
C      48.387388000000001     50.959142999999997     51.234461000000003
C      52.652633999999999     51.805540999999998     49.906162000000002
C      48.520614999999999     47.890267999999999     48.988244000000002
C      52.115310000000001     51.446069000000001     48.995457000000002
C      51.382117999999998     51.064425999999997     48.215558000000001
C      50.839444999999998     52.358674999999998     49.936672999999999
C      48.695951000000001     48.390720000000002     50.778385999999998
C      48.000622000000000     48.066197000000003     49.974285999999999
C      49.266883999999997     50.312880000000000     51.055480000000003
C      50.794544999999999     51.609158000000001     50.773175999999999
C      50.367452000000000     50.976336000000003     48.703693999999999
C      51.320934000000001     50.719180000000001     49.260758000000003
