38

C      50.390326999999999     51.075758999999998     50.592728000000001
C      51.012745000000002     50.547209000000002     49.833340999999997
C      49.989908999999997     50.734735999999998     49.652786999999996
C      50.647244000000001     50.878692999999998     48.848090999999997
C      51.433996000000000     51.406663999999999     50.348657000000003
C      50.387931999999999     49.856752000000000     49.170679999999997
C      51.715038999999997     52.097225000000002     48.584550999999998
C      50.659478999999997     51.907299000000002     48.514609000000000
C      50.639012999999998     51.636561999999998     49.623126999999997
C      50.992676000000003     52.620158000000004     49.280617999999997
C      49.049118999999997     52.575538000000002     50.166407999999997
C      49.611162999999998     51.654752000000002     50.036732000000001
C      49.617545000000000     50.433174999999999     48.661897000000003
C      48.888945000000000     51.984070000000003     49.237394000000002
C      50.238776999999999     49.958688000000002     50.346440999999999
C      51.405529999999999     50.121012000000000     48.857579000000001
C      52.046145000000003     50.245690000000003     49.729875000000000
C      50.575591000000003     50.125126999999999     48.090879000000001
C      51.903359000000002     52.167198999999997     49.692844999999998
C      51.444893000000000     51.067580999999997     48.164538999999998
C      49.763961999999999     51.486781000000001     48.929172000000001
C      52.361359000000000     50.641607999999998     48.720857000000002
C      51.603641000000003     51.221207000000000     49.244549999999997
C      50.091132999999999     51.131295000000001     47.938378999999998
C      48.968544000000001     50.914954999999999     49.477009000000002
C      48.529750999999997     51.571452000000001     50.223156000000003
C      48.028204000000002     52.435330999999998     49.702471000000003
C      49.889076000000003     52.478723000000002     49.360759999999999
C      48.906550000000003     53.069961999999997     49.192200000000000
C      49.350608999999999     49.869295999999999     49.615127999999999
C      49.318333000000003     50.666474000000001     50.492745999999997
C      48.549436000000000     50.171343000000000     48.819257000000000
C      48.001902999999999     51.349972000000001     49.223972000000003
C      51.177503999999999     49.476857000000003     49.817410000000002
C      48.834018999999998     51.198759000000003     48.425927999999999
C      52.630327999999999     51.673578999999997     48.985159000000003
C      52.454515999999998     51.228684000000001     49.966886000000002
C      50.103727999999997     49.015723000000001     49.800989000000001
