38

C      50.074460999999999     49.123069999999998     50.502847000000003
C      50.160890000000002     50.227224999999997     50.705267999999997
C      50.878647999999998     49.534942000000001     51.106352999999999
C      50.642251000000002     49.441124000000002     52.221896999999998
C      49.835209999999996     49.529708999999997     51.473101000000000
C      49.399391999999999     49.217457000000003     49.611390999999998
C      50.444035999999997     49.471505999999998     49.528717000000000
C      49.361747999999999     50.957656999999998     50.459417000000002
C      51.500560999999998     48.631833000000000     51.155540000000002
C      49.023530999999998     49.130231999999999     48.555596000000001
C      49.247095000000002     48.220906999999997     49.164934000000002
C      51.689163000000001     49.528815000000002     51.817137000000002
C      49.175420000000003     49.810774000000002     50.603658000000003
C      51.896785000000001     49.576070999999999     50.691589000000000
C      49.454498999999998     50.570222999999999     51.472315999999999
C      50.688343000000003     48.071548999999997     50.619371999999998
C      50.068635999999998     48.834777000000003     48.747324999999996
C      49.729672999999998     50.260139000000002     49.722866000000003
C      49.861393000000000     49.293170000000003     47.789270999999999
C      50.712285000000001     50.437021999999999     49.144333000000003
C      50.189999999999998     47.747889999999998     48.793821000000001
C      50.447713000000000     51.036814999999997     50.031595000000003
C      49.797266000000000     49.900481999999997     48.716884999999998
C      51.128180000000000     48.968744000000001     50.176408000000002
C      51.072893999999998     50.108674999999998     50.166902000000000
C      51.300652999999997     48.566121000000003     52.237910999999997
C      50.209499999999998     48.397709999999996     49.709705999999997
C      51.513458000000000     49.584536999999997     49.317095999999999
C      49.854039000000000     51.938200999999999     50.294894999999997
C      49.704537999999999     50.050027999999998     52.415824999999998
C      50.240167000000000     51.260677999999999     51.095900000000000
C      48.788857999999998     49.727280999999998     51.692537000000002
C      50.434403000000003     48.622241000000002     51.513286000000001
C      49.478319999999997     48.243811000000001     48.050477000000001
C      50.811928999999999     49.569898000000002     48.447082999999999
C      51.061408999999998     47.697541999999999     51.591970000000003
C      50.537216999999998     50.395068000000002     51.717227000000001
C      49.197817000000001     47.290883999999998     48.559386000000003
