38

C      50.373230000000000     49.314889999999998     49.972800999999997
C      51.385581999999999     49.175223000000003     49.539085000000000
C      50.382694999999998     51.264946999999999     50.301960999999999
C      51.504986000000002     49.064317000000003     51.682780000000001
C      50.721425000000004     49.928446999999998     49.126742999999998
C      50.869293999999996     50.652695999999999     51.142046999999998
C      51.798340000000003     50.174118000000000     49.257896000000002
C      50.807851999999997     49.515568999999999     50.983055000000000
C      49.286315000000002     50.944516999999998     50.273713999999998
C      51.727722999999997     49.158296000000000     50.564441000000002
C      51.489235000000001     51.162190000000002     50.431933000000001
C      49.742632000000000     49.238326000000001     50.881718999999997
C      50.604379000000002     51.718283999999997     51.315744000000002
C      49.949854000000002     50.589837000000003     49.491909999999997
C      49.840916999999997     50.977341000000003     51.194522999999997
C      51.012028000000001     50.938260000000000     49.461215000000003
C      50.390802000000001     50.906723000000000     52.133310000000002
C      49.151032999999998     50.168216999999999     51.047736000000000
C      48.787346999999997     51.198535000000000     51.244025000000001
C      51.172922999999997     50.107577999999997     50.168281000000000
C      49.247523000000001     49.432195000000000     51.874684999999999
C      48.636594000000002     49.268008000000002     50.756751000000001
C      50.082154000000003     50.025855000000000     51.553905999999998
C      52.446630999999996     49.412177999999997     49.765931000000002
C      52.704250999999999     49.566946000000002     50.858370999999998
C      51.045366000000001     50.004438000000000     52.014752999999999
C      50.337285999999999     49.026322000000000     51.843471000000001
C      50.991013000000002     49.166817999999999     52.713684000000001
C      49.295552000000001     49.781835999999998     49.996893000000000
C      50.080925999999998     49.862074000000000     52.602462000000003
C      48.844425000000001     50.549899000000003     49.339289999999998
C      48.363081999999999     50.320211999999998     50.327229000000003
C      50.129154999999997     50.223469999999999     50.489919999999998
C      52.239019999999996     50.376823000000002     50.247320999999999
C      49.580359999999999     51.924458000000001     50.785953999999997
C      51.761350000000000     50.059522999999999     51.176250000000003
C      49.308737000000001     50.583781999999999     52.075878000000003
C      49.588827999999999     51.701791999999998     51.928213000000000
