38

C      50.414627000000003     49.845806000000003     50.958303000000001
C      51.382337999999997     50.050961999999998     50.415993999999998
C      50.538573000000000     49.895854999999997     49.714239999999997
C      50.876285000000003     49.103417000000000     50.329087999999999
C      49.583474000000002     49.566310000000001     49.330030999999998
C      51.291826999999998     48.317290999999997     50.856326000000003
C      51.208337999999998     47.340015000000001     50.404774000000003
C      52.188085000000001     48.549624999999999     51.412253000000000
C      51.350586000000000     49.320467000000001     51.298623999999997
C      50.585368000000003     47.644911999999998     51.299787999999999
C      49.845723000000000     50.648842000000002     49.342801999999999
C      49.377049000000000     51.140368000000002     50.194405000000003
C      51.762669000000002     47.517600999999999     51.357622999999997
C      48.681880000000000     50.350073999999999     50.730865999999999
C      49.818468000000003     49.051119999999997     50.339108000000003
C      50.453861000000003     50.789450000000002     50.342865000000003
C      48.782882999999998     50.314481999999998     49.630896000000000
C      49.680736000000003     50.691445000000002     51.171830999999997
C      50.373944000000002     48.107348999999999     50.289458000000003
C      52.083244999999998     47.858673000000003     52.336160999999997
C      49.289177000000002     48.537292999999998     49.532324000000003
C      48.792774000000001     49.358429000000001     50.155476999999998
C      48.791215999999999     51.389640999999997     51.091690999999997
C      50.370458999999997     48.752355999999999     51.247616999999998
C      51.967585000000000     49.046543000000000     50.400762000000000
C      49.620975999999999     50.090314999999997     50.270775000000000
C      52.203845000000001     47.940719000000001     50.424095999999999
C      48.285893999999999     51.187269999999998     50.092264000000000
C      51.456802000000003     49.352668000000001     49.450930999999997
C      51.351647999999997     48.285030999999996     49.768065999999997
C      51.194206999999999     48.387886999999999     51.922125999999999
C      51.101875000000000     46.657221999999997     51.330914000000000
C      51.990792999999996     46.728572000000000     52.077373000000001
C      49.110779000000001     50.264479000000001     48.596756999999997
C      51.084178000000001     47.336488000000003     52.234493000000001
C      50.401533000000001     48.814376000000003     49.404921999999999
C      48.552598000000003     49.365284000000003     49.069212000000000
C      48.949945999999997     51.280177999999999     49.161084000000002
