38

C      50.664037999999998     49.728507999999998     51.117592999999999
C      50.650680000000001     49.237496000000000     50.118760000000002
C      49.326062000000000     50.534106999999999     49.094804000000003
C      50.473694000000002     50.317444000000002     50.205849999999998
C      49.456221999999997     50.694077000000000     50.138342000000002
C      49.699233000000000     49.720168000000001     50.567990999999999
C      49.407266999999997     51.575730000000000     49.470108000000003
C      51.261944000000000     50.989193999999998     49.885441000000000
C      50.343426000000001     48.114877000000000     50.065863999999998
C      48.664270000000002     51.246330000000000     48.656858999999997
C      48.384327999999996     50.102401000000000     48.815693000000003
C      49.988886999999998     49.784436999999997     49.426136000000000
C      49.622244000000002     48.896569999999997     49.881028999999998
C      49.784249000000003     51.282967999999997     48.440944000000002
C      50.294921000000002     51.392259000000003     50.362802000000002
C      49.928887000000003     50.636676000000001     51.132165999999998
C      51.308962999999999     51.773057999999999     50.677118000000000
C      48.578741999999998     48.659917999999998     49.718074000000001
C      50.284261000000001     50.931598999999999     49.368417999999998
C      48.882055999999999     49.042810000000003     50.711029000000003
C      50.268391999999999     50.280938999999996     48.490977000000001
C      51.147238000000002     50.970331000000002     48.723289000000001
C      51.485461999999998     49.973925999999999     50.361744000000002
C      49.229616000000000     50.361862000000002     48.045703000000003
C      49.268617999999996     48.040112000000001     50.461042999999997
C      48.940938000000003     49.748649000000000     49.759132999999999
C      50.014315000000003     48.754531000000000     50.920169000000001
C      47.988447999999998     49.489528000000000     50.219968000000001
C      52.040377999999997     50.900678999999997     50.682842000000001
C      49.029549000000003     51.362858000000003     47.616889000000000
C      48.722990000000003     50.159627000000000     50.774237999999997
C      51.000616000000001     50.772450999999997     50.977457000000001
C      50.498564000000002     51.599499999999999     51.449319000000003
C      51.716476000000000     50.126919999999998     51.451557999999999
C      48.178669999999997     50.654508000000000     47.856301999999999
C      51.634096000000000     51.306305000000002     51.659979000000000
C      49.427529000000000     47.958185999999998     49.366573000000002
C      51.040750000000003     50.041715000000003     49.323632000000003
