38

C      50.306114999999998     49.070410000000003     50.654812000000000
C      49.302055000000003     49.433911999999999     50.399839000000000
C      49.642786000000001     49.248637000000002     51.433033000000002
C      50.019953000000001     50.124709000000003     50.897396000000001
C      50.694985000000003     49.500664999999998     51.594670999999998
C      48.644655000000000     48.913760000000003     51.191105000000000
C      48.787875999999997     48.547749000000003     50.041885999999998
C      50.944474000000000     50.564070000000001     51.316305000000000
C      48.275696000000003     47.597772999999997     49.974848000000001
C      49.521186999999998     48.418481999999997     50.788221999999998
C      51.797252999999998     50.505417000000001     50.451842999999997
C      47.807143000000003     48.615620000000000     49.575164000000001
C      51.973360999999997     49.379939999999998     50.279786000000001
C      47.851540000000000     48.391874999999999     50.650517000000001
C      51.289637999999997     48.771248999999997     50.965034000000003
C      48.914479999999998     50.017052999999997     51.255161000000001
C      48.929285999999998     49.368673000000001     52.206525999999997
C      51.766638999999998     49.746634000000000     51.351801999999999
C      48.704726000000001     47.776876999999999     50.993485000000000
C      49.302542000000003     48.295020999999998     51.848328000000002
C      52.010316000000003     50.818998999999998     51.497194999999998
C      49.845157000000000     50.126938000000003     52.004224000000001
C      50.367488000000002     48.410259000000003     51.519277000000002
C      49.431009000000003     47.625703000000001     50.086205000000000
C      50.702509999999997     50.721246000000001     50.177047000000002
C      51.301752999999998     49.942956000000002     49.559809999999999
C      49.181339000000001     48.550578999999999     52.917653000000001
C      51.029896000000001     49.785778999999998     50.583069000000002
C      50.034123000000001     49.044141000000003     52.400664999999996
C      49.875929999999997     48.684086999999998     49.746499000000000
C      50.558230999999999     49.311143000000001     48.959434999999999
C      51.017814000000001     48.906851000000003     49.879013999999998
C      50.200389000000001     49.776178000000002     49.862833000000002
C      49.800384999999999     47.475127999999998     51.192234999999997
C      48.191018999999997     49.427669999999999     50.334555999999999
C      50.473035000000003     50.474910999999999     49.072369999999999
C      50.492071000000003     48.028450999999997     50.449491999999999
C      52.377443000000000     48.838109000000003     51.165081999999998
