38

C      49.514363000000003     49.536510000000000     49.987828000000000
C      51.256650999999998     49.302273000000000     50.364223000000003
C      50.270561000000001     49.331164999999999     50.750760999999997
C      50.840066999999998     50.191079999999999     50.981073000000002
C      50.063240000000000     48.659008000000000     51.541597000000003
C      49.032673000000003     48.332870000000000     51.252780999999999
C      49.729357000000000     48.498871000000001     50.441656000000002
C      50.112974000000001     49.770125999999998     51.726359000000002
C      51.273650000000004     49.617775000000002     49.310119000000000
C      52.024090999999999     49.354528000000002     51.988494000000003
C      50.105210999999997     49.702176000000001     49.031596999999998
C      50.797536000000001     48.372373000000003     50.742553000000001
C      52.364789999999999     50.436098000000001     51.806609999999999
C      49.006399999999999     47.703006999999999     50.348838000000001
C      51.879488000000002     49.865695000000002     51.032009000000002
C      49.405143000000002     48.615920000000003     49.409284999999997
C      51.261018000000000     50.157153999999998     51.955584999999999
C      51.510055999999999     50.390810000000002     50.120207000000001
C      48.950536000000000     47.248652999999997     51.390450000000001
C      50.513461999999997     49.983344000000002     49.979706000000000
C      49.935043999999998     47.661971000000001     51.094335999999998
C      49.195633999999998     49.036667000000001     52.093806999999998
C      51.055757999999997     49.196747000000002     51.470022999999998
C      49.782079000000003     50.325468999999998     50.738539000000003
C      49.515481999999999     47.907482999999999     52.130757000000003
C      52.242888000000001     49.551741999999997     50.017552000000002
C      49.266889999999997     49.391931000000000     51.061841999999999
C      51.646571999999999     51.135227999999998     52.265650000000001
C      50.451676999999997     48.911304999999999     49.735585000000000
C      49.722053000000002     50.609819000000002     49.636586000000001
C      51.962457999999998     50.159954999999997     52.798181000000000
C      50.808672999999999     50.661358000000000     49.218176999999997
C      50.591299999999997     51.016708999999999     50.295724000000000
C      48.260677000000001     49.094766000000000     51.360453999999997
C      52.949905000000001     49.751640999999999     52.456301000000003
C      51.601287999999997     50.933928000000002     51.143996000000001
C      51.950431999999999     48.759188999999999     51.000715000000000
C      48.696292000000000     48.815410000000000     50.304881000000002
