38

C      48.849767999999997     50.619335999999997     49.766114999999999
C      49.184941000000002     51.081589000000001     48.853442999999999
C      49.581322999999998     51.448360000000001     49.823914000000002
C      48.486469999999997     51.625450999999998     49.647471000000003
C      48.248756999999998     50.472245000000001     48.813901999999999
C      48.840032000000001     51.291058000000000     50.648637000000001
C      49.171073999999997     49.941091999999998     48.954084999999999
C      48.117688000000001     51.095809000000003     51.478127000000001
C      48.176386000000001     50.451689999999999     50.606718000000001
C      48.419345999999997     52.138072999999999     51.179344999999998
C      49.113346000000000     52.296982999999997     50.335484000000001
C      48.620175000000003     49.506425999999998     50.823706000000001
C      49.601118000000000     50.562711000000000     50.516330000000004
C      49.934606000000002     50.488059000000000     49.474735000000003
C      49.698560000000001     49.639924999999998     51.083978000000002
C      49.341208999999999     49.633113999999999     50.004750999999999
C      48.955094000000003     50.406266000000002     51.375039000000001
C      50.410699999999999     49.870165000000000     50.260520000000000
C      49.872703000000001     51.605381000000001     50.860816000000000
C      47.370759000000000     49.865456000000002     49.143571000000001
C      47.397804000000001     51.918467999999997     51.520860999999996
C      47.725084000000003     50.778416000000000     49.694175999999999
C      48.289098000000003     49.731537000000003     49.738506000000001
C      47.291507000000003     48.842770000000002     48.679907000000000
C      50.131250000000001     49.426639999999999     49.262920999999999
C      48.595776000000001     48.724939999999997     50.075584999999997
C      47.551800999999998     48.934725000000000     49.749172000000002
C      50.013685000000002     50.698318000000000     51.501508000000001
C      49.168171000000001     48.882007999999999     49.173203999999998
C      49.168680999999999     51.443931999999997     51.678311999999998
C      48.265993000000002     49.356333999999997     48.721784000000000
C      50.556818999999997     50.993873000000001     50.245176999999998
C      47.318083999999999     49.888936999999999     50.256649000000003
C      48.658135000000001     50.779752000000002     52.388401000000002
C      47.777343999999999     51.513429000000002     50.515487000000000
C      48.205879000000003     48.324516000000003     49.105125000000001
C      48.304265000000001     51.859540000000003     52.243355999999999
C      49.442667000000000     52.475116999999997     51.394398000000002
