38

C      50.412621999999999     48.643124000000000     50.798954000000002
C      52.224482000000002     48.575651000000001     50.834558999999999
C      51.286726999999999     47.926225000000002     50.883370999999997
C      50.723233000000000     49.664459000000001     50.733786000000002
C      51.802208999999998     48.101861999999997     51.831076000000003
C      50.208112999999997     47.591458000000003     50.880212000000000
C      50.643478999999999     48.157074999999999     51.726686999999998
C      51.156024000000002     48.762408000000001     52.456989999999998
C      50.415070000000000     49.263247000000000     51.725332999999999
C      49.628059999999998     49.892490000000002     51.284398000000003
C      50.426158999999998     49.006079999999997     49.702790000000000
C      50.274377999999999     50.102066999999998     49.840561000000001
C      49.136200000000002     47.792440999999997     50.913100999999997
C      49.684932000000003     49.344107999999999     50.393264000000002
C      48.392634999999999     48.311163999999998     51.507069000000001
C      50.732959999999999     47.971440000000001     49.938820000000000
C      51.353259999999999     48.966298999999999     51.350996000000002
C      48.678466999999998     49.387031000000000     51.571257000000003
C      51.349538000000003     48.626461999999997     49.223168000000001
C      49.530259999999998     48.740333000000000     51.399639000000001
C      51.882601000000001     47.972279999999998     49.950735999999999
C      50.273392000000001     50.652935999999997     50.835338000000000
C      50.052697000000002     48.608901000000003     52.519987999999998
C      51.273049999999998     50.454082999999997     51.284792000000003
C      49.670132000000002     48.279440999999998     50.101953000000002
C      48.977896000000001     48.606141000000001     52.362648999999998
C      49.520625000000003     49.557622000000002     52.298383000000001
C      49.619079999999997     47.782245000000003     51.898609999999998
C      51.827770999999998     49.708723999999997     50.657654999999998
C      51.352488000000001     49.765757000000001     52.099708000000000
C      48.773851000000001     48.797196999999997     50.596451999999999
C      51.304299000000000     49.674484999999997     49.629564999999999
C      51.204396000000003     50.574694999999998     50.216518999999998
C      50.503349999999998     49.599350999999999     52.786380999999999
C      52.242759000000000     49.066623999999997     49.811374000000001
C      50.386082000000002     50.326574000000001     51.936112999999999
C      51.313262999999999     48.832780000000000     50.289737000000002
C      52.394399999999997     48.301940000000002     49.019454000000003
