38

C      49.638773999999998     49.436242999999997     50.442503000000002
C      48.777106000000003     49.854730000000004     49.992184999999999
C      49.498956000000000     50.505926000000002     50.527169999999998
C      50.414980000000000     48.936190000000003     50.939728000000002
C      49.015354000000002     50.811093000000000     51.474497999999997
C      48.723132000000000     48.852403000000002     50.494534999999999
C      50.170825999999998     47.947364999999998     51.298402000000003
C      48.099322000000001     49.049331000000002     49.646613000000002
C      51.333075999999998     48.986519999999999     50.322527999999998
C      50.364913999999999     48.979509999999998     49.787827999999998
C      52.178099000000003     48.934202999999997     50.996561999999997
C      51.243068000000001     48.367660999999998     51.275866999999998
C      48.328040999999999     50.616835000000002     50.607866999999999
C      49.237568000000003     48.973002000000001     49.519165000000001
C      50.742716999999999     48.072415999999997     50.316505999999997
C      49.671684999999997     48.328653000000003     50.365791999999999
C      51.277583000000000     49.481655000000003     51.329996999999999
C      50.937738000000003     47.733542999999997     52.094124000000001
C      47.662703999999998     48.536825999999998     50.544606999999999
C      50.643757999999998     49.882981000000001     50.442121999999998
C      48.997039000000001     51.489913000000001     50.570566999999997
C      49.105991000000003     51.914158000000000     51.595573999999999
C      52.776933999999997     48.060592000000000     51.233212000000002
C      49.400402000000000     48.808030000000002     51.351436999999997
C      51.868526000000003     47.942253999999998     50.525241000000001
C      51.909759999999999     47.517722999999997     51.592730000000003
C      48.447443000000000     52.420150000000000     50.839936999999999
C      48.126123999999997     51.455255000000001     51.297392000000002
C      47.786706000000002     50.164864000000001     49.690949000000003
C      47.442706999999999     49.491723999999998     48.882356000000001
C      51.246800999999998     46.678849999999997     51.915733000000003
C      48.246814999999998     48.922384999999998     51.466161000000000
C      48.550730999999999     49.740057999999998     48.930148000000003
C      52.022798000000002     48.529862000000001     52.014861000000003
C      47.906919000000002     49.598770999999999     50.633144999999999
C      48.870356999999998     49.777946000000000     51.121467000000003
C      51.019137000000001     47.296230999999999     51.019902000000002
C      47.081522999999997     49.324779999999997     49.947915000000002
